
  Mrv2305 12212419023D          

 33 34  0  0  0  0            999 V2000
    2.5820   27.7720    8.0610 O   0  0  0  0  0  0  0  0  0  0  0  0
    3.3570   28.4740    7.4150 C   0  0  0  0  0  0  0  0  0  0  0  0
    3.0820   29.7340    7.1050 N   0  0  0  0  0  0  0  0  0  0  0  0
    1.7760   30.4290    7.3750 C   0  0  0  0  0  0  0  0  0  0  0  0
    1.5340   31.7540    7.0770 N   0  0  0  0  0  0  0  0  0  0  0  0
    0.3420   32.0070    7.4820 C   0  0  0  0  0  0  0  0  0  0  0  0
    0.5430   29.6100    8.3090 S   0  0  0  0  0  0  0  0  0  0  0  0
   -0.3190   31.0440    8.1450 C   0  0  0  0  0  0  0  0  0  0  0  0
   -1.7010   31.2600    8.7300 C   0  0  2  0  0  0  0  0  0  0  0  0
   -1.5630   31.7170   10.1970 C   0  0  0  0  0  0  0  0  0  0  0  0
   -2.6330   30.0610    8.5890 C   0  0  0  0  0  0  0  0  0  0  0  0
    4.7300   27.9600    7.0430 C   0  0  1  0  0  0  0  0  0  0  0  0
    4.7550   27.0240    5.8800 C   0  0  0  0  0  0  0  0  0  0  0  0
    4.5750   25.6640    6.0660 C   0  0  0  0  0  0  0  0  0  0  0  0
    4.5830   24.8320    4.9470 C   0  0  0  0  0  0  0  0  0  0  0  0
    4.7690   25.3860    3.7080 C   0  0  0  0  0  0  0  0  0  0  0  0
    4.9600   26.7020    3.5690 N   0  0  0  0  0  0  0  0  0  0  0  0
    4.9590   27.5260    4.6180 C   0  0  0  0  0  0  0  0  0  0  0  0
    3.8080   30.2700    6.6510 H   0  0  0  0  0  0  0  0  0  0  0  0
   -0.0862   32.9875    7.2740 H   0  0  0  0  0  0  0  0  0  0  0  0
   -2.1771   32.0356    8.1301 H   0  0  0  0  0  0  0  0  0  0  0  0
   -1.5020   30.8431   10.8456 H   0  0  0  0  0  0  0  0  0  0  0  0
   -0.6587   32.3154   10.3076 H   0  0  0  0  0  0  0  0  0  0  0  0
   -2.4308   32.3154   10.4743 H   0  0  0  0  0  0  0  0  0  0  0  0
   -2.9133   29.7004    9.5787 H   0  0  0  0  0  0  0  0  0  0  0  0
   -3.5285   30.3591    8.0438 H   0  0  0  0  0  0  0  0  0  0  0  0
   -2.1232   29.2667    8.0438 H   0  0  0  0  0  0  0  0  0  0  0  0
    5.2987   28.8332    6.7233 H   0  0  0  0  0  0  0  0  0  0  0  0
    5.0689   27.3709    7.8952 H   0  0  0  0  0  0  0  0  0  0  0  0
    4.4307   25.2588    7.0675 H   0  0  0  0  0  0  0  0  0  0  0  0
    4.4447   23.7548    5.0403 H   0  0  0  0  0  0  0  0  0  0  0  0
    4.7649   24.7653    2.8120 H   0  0  0  0  0  0  0  0  0  0  0  0
    5.1219   28.5901    4.4471 H   0  0  0  0  0  0  0  0  0  0  0  0
  8  7  1  0  0  0  0
  8  9  1  0  0  0  0
  8  6  2  0  0  0  0
  2  3  1  0  0  0  0
  2  1  2  0  0  0  0
  2 12  1  0  0  0  0
 12 13  1  0  0  0  0
 13 14  2  0  0  0  0
 13 18  1  0  0  0  0
 14 15  1  0  0  0  0
 15 16  2  0  0  0  0
 16 17  1  0  0  0  0
 18 17  2  0  0  0  0
  4  3  1  0  0  0  0
  4  5  2  0  0  0  0
  4  7  1  0  0  0  0
  6  5  1  0  0  0  0
  9 10  1  1  0  0  0
  9 11  1  0  0  0  0
 19  3  1  0  0  0  0
  6 20  1  0  0  0  0
  9 21  1  0  0  0  0
 10 22  1  0  0  0  0
 10 23  1  0  0  0  0
 10 24  1  0  0  0  0
 11 25  1  0  0  0  0
 11 26  1  0  0  0  0
 11 27  1  0  0  0  0
 12 28  1  0  0  0  0
 12 29  1  0  0  0  0
 14 30  1  0  0  0  0
 15 31  1  0  0  0  0
 16 32  1  0  0  0  0
 18 33  1  0  0  0  0
M  END
$$$$
