
  Mrv2305 12232419513D          

 10 10  0  0  0  0            999 V2000
    3.0820   29.7340    7.1050 N   0  0  0  0  0  0  0  0  0  0  0  0
    1.7760   30.4290    7.3750 C   0  0  0  0  0  0  0  0  0  0  0  0
    1.5340   31.7540    7.0770 N   0  0  0  0  0  0  0  0  0  0  0  0
    0.3420   32.0070    7.4820 C   0  0  0  0  0  0  0  0  0  0  0  0
    0.5430   29.6100    8.3090 S   0  0  0  0  0  0  0  0  0  0  0  0
   -0.3190   31.0440    8.1450 C   0  0  0  0  0  0  0  0  0  0  0  0
    3.8080   30.2700    6.6510 H   0  0  0  0  0  0  0  0  0  0  0  0
   -0.0862   32.9875    7.2740 H   0  0  0  0  0  0  0  0  0  0  0  0
    3.5086   28.8286    7.2403 H   0  0  0  0  0  0  0  0  0  0  0  0
   -1.3128   31.3513    8.4706 H   0  0  0  0  0  0  0  0  0  0  0  0
  6  5  1  0  0  0  0
  6  4  2  0  0  0  0
  2  1  1  0  0  0  0
  2  3  2  0  0  0  0
  2  5  1  0  0  0  0
  4  3  1  0  0  0  0
  7  1  1  0  0  0  0
  4  8  1  0  0  0  0
  1  9  1  0  0  0  0
  6 10  1  0  0  0  0
M  END
$$$$
